data/models/EPRI_Ckt24-G/fdr_05410/Transformers.dss
New "Transformer.05410_g2000ff4400" phases=1 buses=[n283602.1, g2000ff4400_n283602_sec.1, ] conns=[wye, wye, ] kVs=[19.91858, 0.24, ] kVAs=[10, 10, ] taps=[1, 1, ] wdg=1 %R=0.7 wdg=2 %R=0.7 %imag=0.5 %loadloss=1.4 %noloadloss=0.325 Xhl=1.575
New "Transformer.05410_g2000vh4000" phases=1 buses=[n283609.2, g2000vh4000_n283609_sec.2, ] conns=[wye, wye, ] kVs=[19.91858, 0.24, ] kVAs=[15, 15, ] taps=[1, 1, ] wdg=1 %R=0.7466667 wdg=2 %R=0.7466667 %imag=0.5 %loadloss=1.493333 %noloadloss=0.2733333 Xhl=2.18
New "Transformer.05410_g2000vh9100" phases=1 buses=[n283615.3, g2000vh9100_n283615_sec.3, ] conns=[wye, wye, ] kVs=[19.91858, 0.24, ] kVAs=[15, 15, ] taps=[1, 1, ] wdg=1 %R=0.7466667 wdg=2 %R=0.7466667 %imag=0.5 %loadloss=1.493333 %noloadloss=0.2733333 Xhl=2.18
New "Transformer.05410_g2000wh5900" phases=1 buses=[n283675.2, g2000wh5900_n283675_sec.2, ] conns=[wye, wye, ] kVs=[19.91858, 0.24, ] kVAs=[50, 50, ] taps=[1, 1, ] wdg=1 %R=0.4385 wdg=2 %R=0.4385 %imag=0.5 %loadloss=0.877 %noloadloss=0.181 Xhl=2.025
New "Transformer.05410_g2000vh9500" phases=1 buses=[n283675.2, g2000vh9500_n283675_sec.2, ] conns=[wye, wye, ] kVs=[19.91858, 0.24, ] kVAs=[167, 167, ] taps=[1, 1, ] wdg=1 %R=0.4167665 wdg=2 %R=0.4167665 %imag=0.5 %loadloss=0.8335329 %noloadloss=0.161976 Xhl=2.355
New "Transformer.05410_g2000wi4400" phases=1 buses=[n283710.2, g2000wi4400_n283710_sec.2, ] conns=[wye, wye, ] kVs=[19.91858, 0.24, ] kVAs=[100, 100, ] taps=[1, 1, ] wdg=1 %R=0.67875 wdg=2 %R=0.67875 %imag=0.5 %loadloss=1.3575 %noloadloss=0.131 Xhl=3.29
New "Transformer.05410_g2000vi6200" phases=1 buses=[n283684.2, g2000vi6200_n283684_sec.2, ] conns=[wye, wye, ] kVs=[19.91858, 0.24, ] kVAs=[167, 167, ] taps=[1, 1, ] wdg=1 %R=0.4167665 wdg=2 %R=0.4167665 %imag=0.5 %loadloss=0.8335329 %noloadloss=0.161976 Xhl=2.355
New "Transformer.05410_g2000vj0200" phases=1 buses=[n283716.2, g2000vj0200_n283716_sec.2, ] conns=[wye, wye, ] kVs=[19.91858, 0.24, ] kVAs=[100, 100, ] taps=[1, 1, ] wdg=1 %R=0.67875 wdg=2 %R=0.67875 %imag=0.5 %loadloss=1.3575 %noloadloss=0.131 Xhl=3.29
New "Transformer.05410_g2000uj3600" phases=1 buses=[n283731.2, g2000uj3600_n283731_sec.2, ] conns=[wye, wye, ] kVs=[19.91858, 0.24, ] kVAs=[100, 100, ] taps=[1, 1, ] wdg=1 %R=0.67875 wdg=2 %R=0.67875 %imag=0.5 %loadloss=1.3575 %noloadloss=0.131 Xhl=3.29
New "Transformer.05410_g2000uj6500" phases=1 buses=[n283747.2, g2000uj6500_n283747_sec.2, ] conns=[wye, wye, ] kVs=[19.91858, 0.24, ] kVAs=[100, 100, ] taps=[1, 1, ] wdg=1 %R=0.67875 wdg=2 %R=0.67875 %imag=0.5 %loadloss=1.3575 %noloadloss=0.131 Xhl=3.29
New "Transformer.05410_g2000ul3200" phases=1 buses=[n283772.2, g2000ul3200_n283772_sec.2, ] conns=[wye, wye, ] kVs=[19.91858, 0.24, ] kVAs=[100, 100, ] taps=[1, 1, ] wdg=1 %R=0.67875 wdg=2 %R=0.67875 %imag=0.5 %loadloss=1.3575 %noloadloss=0.131 Xhl=3.29
New "Transformer.05410_g2000uh9400" phases=1 buses=[n283633.3, g2000uh9400_n283633_sec.3, ] conns=[wye, wye, ] kVs=[19.91858, 0.24, ] kVAs=[25, 25, ] taps=[1, 1, ] wdg=1 %R=0.633 wdg=2 %R=0.633 %imag=0.5 %loadloss=1.266 %noloadloss=0.248 Xhl=1.835
New "Transformer.05410_g2000ui5400" phases=1 buses=[n283699.3, g2000ui5400_n283699_sec.3, ] conns=[wye, wye, ] kVs=[19.91858, 0.24, ] kVAs=[100, 100, ] taps=[1, 1, ] wdg=1 %R=0.67875 wdg=2 %R=0.67875 %imag=0.5 %loadloss=1.3575 %noloadloss=0.131 Xhl=3.29
New "Transformer.05410_g2000uk1100" phases=1 buses=[n283753.3, g2000uk1100_n283753_sec.3, ] conns=[wye, wye, ] kVs=[19.91858, 0.24, ] kVAs=[50, 50, ] taps=[1, 1, ] wdg=1 %R=0.4385 wdg=2 %R=0.4385 %imag=0.5 %loadloss=0.877 %noloadloss=0.181 Xhl=2.025
New "Transformer.05410_g2000tj2700" phases=1 buses=[n274103.3, g2000tj2700_n274103_sec.3, ] conns=[wye, wye, ] kVs=[19.91858, 0.24, ] kVAs=[50, 50, ] taps=[1, 1, ] wdg=1 %R=0.4385 wdg=2 %R=0.4385 %imag=0.5 %loadloss=0.877 %noloadloss=0.181 Xhl=2.025
New "Transformer.05410_g2000uj0800" phases=1 buses=[n283722.3, g2000uj0800_n283722_sec.3, ] conns=[wye, wye, ] kVs=[19.91858, 0.24, ] kVAs=[50, 50, ] taps=[1, 1, ] wdg=1 %R=0.4385 wdg=2 %R=0.4385 %imag=0.5 %loadloss=0.877 %noloadloss=0.181 Xhl=2.025
New "Transformer.05410_g2000ui3100" phases=1 buses=[n283702.3, g2000ui3100_n283702_sec.3, ] conns=[wye, wye, ] kVs=[19.91858, 0.24, ] kVAs=[50, 50, ] taps=[1, 1, ] wdg=1 %R=0.4385 wdg=2 %R=0.4385 %imag=0.5 %loadloss=0.877 %noloadloss=0.181 Xhl=2.025
New "Transformer.05410_g2000ui6400" phases=1 buses=[n283679.3, g2000ui6400_n283679_sec.3, ] conns=[wye, wye, ] kVs=[19.91858, 0.24, ] kVAs=[50, 50, ] taps=[1, 1, ] wdg=1 %R=0.4385 wdg=2 %R=0.4385 %imag=0.5 %loadloss=0.877 %noloadloss=0.181 Xhl=2.025
New "Transformer.05410_g2000uh9800" phases=1 buses=[n283647.3, g2000uh9800_n283647_sec.3, ] conns=[wye, wye, ] kVs=[19.91858, 0.24, ] kVAs=[50, 50, ] taps=[1, 1, ] wdg=1 %R=0.4385 wdg=2 %R=0.4385 %imag=0.5 %loadloss=0.877 %noloadloss=0.181 Xhl=2.025
New "Transformer.05410_g2000xh4000" phases=1 buses=[n283639.3, g2000xh4000_n283639_sec.3, ] conns=[wye, wye, ] kVs=[19.91858, 0.24, ] kVAs=[15, 15, ] taps=[1, 1, ] wdg=1 %R=0.7466667 wdg=2 %R=0.7466667 %imag=0.5 %loadloss=1.493333 %noloadloss=0.2733333 Xhl=2.18
New "Transformer.05410_g2100bi0400" phases=1 buses=[n283682.1, g2100bi0400_n283682_sec.1, ] conns=[wye, wye, ] kVs=[19.91858, 0.24, ] kVAs=[15, 15, ] taps=[1, 1, ] wdg=1 %R=0.7466667 wdg=2 %R=0.7466667 %imag=0.5 %loadloss=1.493333 %noloadloss=0.2733333 Xhl=2.18
New "Transformer.step_05410_g2100ci3100" phases=1 buses=[n1386727.3, n1386727_lo.3, ] conns=[wye, wye, ] kVs=[19.92, 7.62, ] kVAs=[1000, 1000, ] taps=[1, 1, ] wdg=1 %R=0.4075 wdg=2 %R=0.4075 Xhl=3.72 %Rs=[0.4075, 0.4075, ] %noloadloss=0.0424 sub=no
New "Transformer.05410_g2100ch1800" phases=1 buses=[n1385522.3, g2100ch1800_n1385522_sec.3, ] conns=[wye, wye, ] kVs=[7.621024, 0.24, ] kVAs=[100, 100, ] taps=[1, 1, ] wdg=1 %R=0.67875 wdg=2 %R=0.67875 %imag=0.5 %loadloss=1.3575 %noloadloss=0.131 Xhl=3.29
New "Transformer.05410_g2100bh3900" phases=1 buses=[n283665.3, g2100bh3900_n283665_sec.3, ] conns=[wye, wye, ] kVs=[7.621024, 0.24, ] kVAs=[100, 100, ] taps=[1, 1, ] wdg=1 %R=0.67875 wdg=2 %R=0.67875 %imag=0.5 %loadloss=1.3575 %noloadloss=0.131 Xhl=3.29
New "Transformer.05410_g2100ah6800" phases=1 buses=[n283651.3, g2100ah6800_n283651_sec.3, ] conns=[wye, wye, ] kVs=[7.621024, 0.24, ] kVAs=[100, 100, ] taps=[1, 1, ] wdg=1 %R=0.67875 wdg=2 %R=0.67875 %imag=0.5 %loadloss=1.3575 %noloadloss=0.131 Xhl=3.29
New "Transformer.05410_g2000xh7500" phases=1 buses=[n283636.3, g2000xh7500_n283636_sec.3, ] conns=[wye, wye, ] kVs=[7.621024, 0.24, ] kVAs=[50, 50, ] taps=[1, 1, ] wdg=1 %R=0.4385 wdg=2 %R=0.4385 %imag=0.5 %loadloss=0.877 %noloadloss=0.181 Xhl=2.025
New "Transformer.05410_g2000xg5800" phases=1 buses=[n283612.3, g2000xg5800_n283612_sec.3, ] conns=[wye, wye, ] kVs=[7.621024, 0.24, ] kVAs=[50, 50, ] taps=[1, 1, ] wdg=1 %R=0.4385 wdg=2 %R=0.4385 %imag=0.5 %loadloss=0.877 %noloadloss=0.181 Xhl=2.025
New "Transformer.05410_g2000xf7700" phases=1 buses=[n283582.3, g2000xf7700_n283582_sec.3, ] conns=[wye, wye, ] kVs=[7.621024, 0.24, ] kVAs=[50, 50, ] taps=[1, 1, ] wdg=1 %R=0.4385 wdg=2 %R=0.4385 %imag=0.5 %loadloss=0.877 %noloadloss=0.181 Xhl=2.025
New "Transformer.05410_g2000xe9500" phases=1 buses=[n283544.3, g2000xe9500_n283544_sec.3, ] conns=[wye, wye, ] kVs=[7.621024, 0.24, ] kVAs=[100, 100, ] taps=[1, 1, ] wdg=1 %R=0.67875 wdg=2 %R=0.67875 %imag=0.5 %loadloss=1.3575 %noloadloss=0.131 Xhl=3.29
New "Transformer.step_05410_g2100ci5100" phases=1 buses=[n1386726.3, n1386726_lo.3, ] conns=[wye, wye, ] kVs=[19.92, 7.62, ] kVAs=[1000, 1000, ] taps=[1, 1, ] wdg=1 %R=0.4075 wdg=2 %R=0.4075 Xhl=3.72 %Rs=[0.4075, 0.4075, ] %noloadloss=0.0424 sub=no
New "Transformer.05410_g2100ah8200" phases=1 buses=[n283618.3, g2100ah8200_n283618_sec.3, ] conns=[wye, wye, ] kVs=[7.621024, 0.24, ] kVAs=[100, 100, ] taps=[1, 1, ] wdg=1 %R=0.67875 wdg=2 %R=0.67875 %imag=0.5 %loadloss=1.3575 %noloadloss=0.131 Xhl=3.29
New "Transformer.05410_g2100ah2000" phases=1 buses=[n283617.3, g2100ah2000_n283617_sec.3, ] conns=[wye, wye, ] kVs=[7.621024, 0.24, ] kVAs=[100, 100, ] taps=[1, 1, ] wdg=1 %R=0.67875 wdg=2 %R=0.67875 %imag=0.5 %loadloss=1.3575 %noloadloss=0.131 Xhl=3.29
New "Transformer.05410_g2100ag2100" phases=1 buses=[n283585.3, g2100ag2100_n283585_sec.3, ] conns=[wye, wye, ] kVs=[7.621024, 0.24, ] kVAs=[100, 100, ] taps=[1, 1, ] wdg=1 %R=0.67875 wdg=2 %R=0.67875 %imag=0.5 %loadloss=1.3575 %noloadloss=0.131 Xhl=3.29
New "Transformer.05410_g2100ae4800" phases=1 buses=[n283558.3, g2100ae4800_n283558_sec.3, ] conns=[wye, wye, ] kVs=[7.621024, 0.24, ] kVAs=[100, 100, ] taps=[1, 1, ] wdg=1 %R=0.67875 wdg=2 %R=0.67875 %imag=0.5 %loadloss=1.3575 %noloadloss=0.131 Xhl=3.29
New "Transformer.05410_g2100ae9900" phases=1 buses=[n283556.3, g2100ae9900_n283556_sec.3, ] conns=[wye, wye, ] kVs=[7.621024, 0.24, ] kVAs=[100, 100, ] taps=[1, 1, ] wdg=1 %R=0.67875 wdg=2 %R=0.67875 %imag=0.5 %loadloss=1.3575 %noloadloss=0.131 Xhl=3.29
New "Transformer.05410_g2100af5900" phases=1 buses=[n283577.3, g2100af5900_n283577_sec.3, ] conns=[wye, wye, ] kVs=[7.621024, 0.24, ] kVAs=[100, 100, ] taps=[1, 1, ] wdg=1 %R=0.67875 wdg=2 %R=0.67875 %imag=0.5 %loadloss=1.3575 %noloadloss=0.131 Xhl=3.29
New "Transformer.05410_g2100ag8700" phases=1 buses=[n283594.3, g2100ag8700_n283594_sec.3, ] conns=[wye, wye, ] kVs=[7.621024, 0.24, ] kVAs=[100, 100, ] taps=[1, 1, ] wdg=1 %R=0.67875 wdg=2 %R=0.67875 %imag=0.5 %loadloss=1.3575 %noloadloss=0.131 Xhl=3.29
New "Transformer.05410_g2100bg5600" phases=1 buses=[n283598.3, g2100bg5600_n283598_sec.3, ] conns=[wye, wye, ] kVs=[7.621024, 0.24, ] kVAs=[100, 100, ] taps=[1, 1, ] wdg=1 %R=0.67875 wdg=2 %R=0.67875 %imag=0.5 %loadloss=1.3575 %noloadloss=0.131 Xhl=3.29
New "Transformer.05410_g2100bh6100" phases=1 buses=[n283623.3, g2100bh6100_n283623_sec.3, ] conns=[wye, wye, ] kVs=[7.621024, 0.24, ] kVAs=[100, 100, ] taps=[1, 1, ] wdg=1 %R=0.67875 wdg=2 %R=0.67875 %imag=0.5 %loadloss=1.3575 %noloadloss=0.131 Xhl=3.29
New "Transformer.05410_g2100ch7400" phases=1 buses=[n283632.3, g2100ch7400_n283632_sec.3, ] conns=[wye, wye, ] kVs=[7.621024, 0.24, ] kVAs=[167, 167, ] taps=[1, 1, ] wdg=1 %R=0.4167665 wdg=2 %R=0.4167665 %imag=0.5 %loadloss=0.8335329 %noloadloss=0.161976 Xhl=2.355
New "Transformer.05410_g2100cg0300" phases=1 buses=[n283590.3, g2100cg0300_n283590_sec.3, ] conns=[wye, wye, ] kVs=[7.621024, 0.24, ] kVAs=[167, 167, ] taps=[1, 1, ] wdg=1 %R=0.4167665 wdg=2 %R=0.4167665 %imag=0.5 %loadloss=0.8335329 %noloadloss=0.161976 Xhl=2.355
New "Transformer.05410_g2100be8900" phases=1 buses=[n283564.3, g2100be8900_n283564_sec.3, ] conns=[wye, wye, ] kVs=[7.621024, 0.24, ] kVAs=[50, 50, ] taps=[1, 1, ] wdg=1 %R=0.4385 wdg=2 %R=0.4385 %imag=0.5 %loadloss=0.877 %noloadloss=0.181 Xhl=2.025
New "Transformer.05410_g2100ad9900" phases=1 buses=[n283564.3, g2100ad9900_n283564_sec.3, ] conns=[wye, wye, ] kVs=[7.621024, 0.24, ] kVAs=[100, 100, ] taps=[1, 1, ] wdg=1 %R=0.67875 wdg=2 %R=0.67875 %imag=0.5 %loadloss=1.3575 %noloadloss=0.131 Xhl=3.29
New "Transformer.05410_g2000ye2100" phases=1 buses=[n283532.3, g2000ye2100_n283532_sec.3, ] conns=[wye, wye, ] kVs=[7.621024, 0.24, ] kVAs=[25, 25, ] taps=[1, 1, ] wdg=1 %R=0.633 wdg=2 %R=0.633 %imag=0.5 %loadloss=1.266 %noloadloss=0.248 Xhl=1.835
New "Transformer.05410_g2100dh7600" phases=1 buses=[n283641.2, g2100dh7600_n283641_sec.2, ] conns=[wye, wye, ] kVs=[19.91858, 0.24, ] kVAs=[15, 15, ] taps=[1, 1, ] wdg=1 %R=0.7466667 wdg=2 %R=0.7466667 %imag=0.5 %loadloss=1.493333 %noloadloss=0.2733333 Xhl=2.18
New "Transformer.05410_g2100dh9500" phases=1 buses=[n292300.3, g2100dh9500_n292300_sec.3, ] conns=[wye, wye, ] kVs=[19.91858, 0.24, ] kVAs=[50, 50, ] taps=[1, 1, ] wdg=1 %R=0.567 wdg=2 %R=0.567 %imag=0.5 %loadloss=1.134 %noloadloss=0.181 Xhl=1.965
New "Transformer.05410_g2100eh3700" phases=1 buses=[n292308.1, g2100eh3700_n292308_sec.1, ] conns=[wye, wye, ] kVs=[19.91858, 0.24, ] kVAs=[100, 100, ] taps=[1, 1, ] wdg=1 %R=0.67875 wdg=2 %R=0.67875 %imag=0.5 %loadloss=1.3575 %noloadloss=0.131 Xhl=3.29
New "Transformer.05410_g2100eh3200" phases=1 buses=[n292286.2, g2100eh3200_n292286_sec.2, ] conns=[wye, wye, ] kVs=[19.91858, 0.24, ] kVAs=[50, 50, ] taps=[1, 1, ] wdg=1 %R=0.567 wdg=2 %R=0.567 %imag=0.5 %loadloss=1.134 %noloadloss=0.181 Xhl=1.965
New "Transformer.05410_g2100eg8500" phases=1 buses=[n292275.3, g2100eg8500_n292275_sec.3, ] conns=[wye, wye, ] kVs=[19.91858, 0.24, ] kVAs=[50, 50, ] taps=[1, 1, ] wdg=1 %R=0.4385 wdg=2 %R=0.4385 %imag=0.5 %loadloss=0.877 %noloadloss=0.181 Xhl=2.025
New "Transformer.05410_g2100dg3700" phases=1 buses=[n283614.3, g2100dg3700_n283614_sec.3, ] conns=[wye, wye, ] kVs=[19.91858, 0.24, ] kVAs=[100, 100, ] taps=[1, 1, ] wdg=1 %R=0.67875 wdg=2 %R=0.67875 %imag=0.5 %loadloss=1.3575 %noloadloss=0.131 Xhl=3.29
New "Transformer.05410_g2100dg6300" phases=1 buses=[n283589.3, g2100dg6300_n283589_sec.3, ] conns=[wye, wye, ] kVs=[19.91858, 0.24, ] kVAs=[50, 50, ] taps=[1, 1, ] wdg=1 %R=0.4385 wdg=2 %R=0.4385 %imag=0.5 %loadloss=0.877 %noloadloss=0.181 Xhl=2.025
New "Transformer.05410_g2100dg1300" phases=1 buses=[n283601.3, g2100dg1300_n283601_sec.3, ] conns=[wye, wye, ] kVs=[19.91858, 0.24, ] kVAs=[50, 50, ] taps=[1, 1, ] wdg=1 %R=0.4385 wdg=2 %R=0.4385 %imag=0.5 %loadloss=0.877 %noloadloss=0.181 Xhl=2.025
New "Transformer.05410_g2100fh2300" phases=1 buses=[n292269.3, g2100fh2300_n292269_sec.3, ] conns=[wye, wye, ] kVs=[19.91858, 0.24, ] kVAs=[15, 15, ] taps=[1, 1, ] wdg=1 %R=0.7466667 wdg=2 %R=0.7466667 %imag=0.5 %loadloss=1.493333 %noloadloss=0.2733333 Xhl=2.18
New "Transformer.05410_g2100gf5300" phases=3 buses=[n292267.1.2.3, g2100gf5300_n292267_sec.1.2.3, ] conns=[wye, wye, ] kVs=[34.5, 0.48, ] kVAs=[150, 150, ] taps=[1, 1, ] wdg=1 %R=0.567 wdg=2 %R=0.567 %imag=0.5 %loadloss=1.134 %noloadloss=0.181 Xhl=1.965
New "Transformer.05410_g2100ff6200" phases=3 buses=[n292242.1.2.3, g2100ff6200_n292242_sec.1.2.3, ] conns=[wye, wye, ] kVs=[34.5, 0.48, ] kVAs=[300, 300, ] taps=[1, 1, ] wdg=1 %R=0.4090833 wdg=2 %R=0.4090833 %imag=0.5 %loadloss=0.8181667 %noloadloss=0.1525 Xhl=3.505
New "Transformer.05410_g2100ff2000" phases=3 buses=[n292242.1.2.3, g2100ff2000_n292242_sec.1.2.3, ] conns=[wye, wye, ] kVs=[34.5, 0.48, ] kVAs=[150, 150, ] taps=[1, 1, ] wdg=1 %R=0.4578333 wdg=2 %R=0.4578333 %imag=0.5 %loadloss=0.9156667 %noloadloss=0.1546667 Xhl=2.9
New "Transformer.05410_g2100fe2600" phases=3 buses=[n292234.1.2.3, g2100fe2600_n292234_sec.1.2.3, ] conns=[wye, wye, ] kVs=[34.5, 0.48, ] kVAs=[300, 300, ] taps=[1, 1, ] wdg=1 %R=0.4090833 wdg=2 %R=0.4090833 %imag=0.5 %loadloss=0.8181667 %noloadloss=0.1525 Xhl=3.505
New "Transformer.05410_g2100ee8600" phases=1 buses=[n1311915.1, g2100ee8600_n1311915_sec.1, ] conns=[wye, wye, ] kVs=[19.91858, 0.24, ] kVAs=[25, 25, ] taps=[1, 1, ] wdg=1 %R=0.633 wdg=2 %R=0.633 %imag=0.5 %loadloss=1.266 %noloadloss=0.248 Xhl=1.835
New "Transformer.05410_g2100gf9000" phases=1 buses=[n292246.1, g2100gf9000_n292246_sec.1, ] conns=[wye, wye, ] kVs=[19.91858, 0.24, ] kVAs=[15, 15, ] taps=[1, 1, ] wdg=1 %R=0.7466667 wdg=2 %R=0.7466667 %imag=0.5 %loadloss=1.493333 %noloadloss=0.2733333 Xhl=2.18
New "Transformer.05410_g2100he3000" phases=3 buses=[n292212.1.2.3, g2100he3000_n292212_sec.1.2.3, ] conns=[wye, wye, ] kVs=[34.5, 0.48, ] kVAs=[75, 75, ] taps=[1, 1, ] wdg=1 %R=0.658 wdg=2 %R=0.658 %imag=0.5 %loadloss=1.316 %noloadloss=0.198 Xhl=1.745
New "Transformer.05410_g2100he5100" phases=1 buses=[n292209.3, g2100he5100_n292209_sec.3, ] conns=[wye, wye, ] kVs=[19.91858, 0.24, ] kVAs=[25, 25, ] taps=[1, 1, ] wdg=1 %R=0.658 wdg=2 %R=0.658 %imag=0.5 %loadloss=1.316 %noloadloss=0.198 Xhl=1.745
New "Transformer.05410_g2100he0400" phases=3 buses=[n292223.1.2.3, g2100he0400_n292223_sec.1.2.3, ] conns=[wye, wye, ] kVs=[34.5, 0.48, ] kVAs=[150, 150, ] taps=[1, 1, ] wdg=1 %R=0.4578333 wdg=2 %R=0.4578333 %imag=0.5 %loadloss=0.9156667 %noloadloss=0.1546667 Xhl=2.9
New "Transformer.05410_g2100he1900" phases=3 buses=[n292218.1.2.3, g2100he1900_n292218_sec.1.2.3, ] conns=[wye, wye, ] kVs=[34.5, 0.48, ] kVAs=[300, 300, ] taps=[1, 1, ] wdg=1 %R=0.4090833 wdg=2 %R=0.4090833 %imag=0.5 %loadloss=0.8181667 %noloadloss=0.1525 Xhl=3.505
New "Transformer.05410_g2100fe5400" phases=3 buses=[n292228.1.2.3, g2100fe5400_n292228_sec.1.2.3, ] conns=[wye, wye, ] kVs=[34.5, 0.48, ] kVAs=[150, 150, ] taps=[1, 1, ] wdg=1 %R=0.4578333 wdg=2 %R=0.4578333 %imag=0.5 %loadloss=0.9156667 %noloadloss=0.1546667 Xhl=2.9
New "Transformer.05410_g2100af1300" phases=1 buses=[n292244.3, g2100af1300_n292244_sec.3, ] conns=[wye, wye, ] kVs=[19.91858, 0.24, ] kVAs=[15, 15, ] taps=[1, 1, ] wdg=1 %R=0.7466667 wdg=2 %R=0.7466667 %imag=0.5 %loadloss=1.493333 %noloadloss=0.2733333 Xhl=2.18
New "Transformer.05410_g2100gf8600" phases=3 buses=[n292253.1.2.3, g2100gf8600_n292253_sec.1.2.3, ] conns=[wye, wye, ] kVs=[34.5, 0.48, ] kVAs=[75, 75, ] taps=[1, 1, ] wdg=1 %R=0.658 wdg=2 %R=0.658 %imag=0.5 %loadloss=1.316 %noloadloss=0.198 Xhl=1.745
New "Transformer.05410_g2100gf8700" phases=1 buses=[n292256.1, g2100gf8700_n292256_sec.1, ] conns=[wye, wye, ] kVs=[19.91858, 0.24, ] kVAs=[25, 25, ] taps=[1, 1, ] wdg=1 %R=0.658 wdg=2 %R=0.658 %imag=0.5 %loadloss=1.316 %noloadloss=0.198 Xhl=1.745
New "Transformer.05410_g2100gg7300" phases=1 buses=[n292303.3, g2100gg7300_n292303_sec.3, ] conns=[wye, wye, ] kVs=[19.91858, 0.24, ] kVAs=[15, 15, ] taps=[1, 1, ] wdg=1 %R=0.7466667 wdg=2 %R=0.7466667 %imag=0.5 %loadloss=1.493333 %noloadloss=0.2733333 Xhl=2.18
New "Transformer.05410_g2100gh2300" phases=1 buses=[n292309.3, g2100gh2300_n292309_sec.3, ] conns=[wye, wye, ] kVs=[19.91858, 0.24, ] kVAs=[15, 15, ] taps=[1, 1, ] wdg=1 %R=0.7466667 wdg=2 %R=0.7466667 %imag=0.5 %loadloss=1.493333 %noloadloss=0.2733333 Xhl=2.18
New "Transformer.05410_g2100fi8100" phases=3 buses=[n292302.1.2.3, g2100fi8100_n292302_sec.1.2.3, ] conns=[wye, wye, ] kVs=[34.5, 0.48, ] kVAs=[300, 300, ] taps=[1, 1, ] wdg=1 %R=0.4090833 wdg=2 %R=0.4090833 %imag=0.5 %loadloss=0.8181667 %noloadloss=0.1525 Xhl=3.505
New "Transformer.05410_g2100fh3200" phases=3 buses=[n292302.1.2.3, g2100fh3200_n292302_sec.1.2.3, ] conns=[wye, wye, ] kVs=[34.5, 0.48, ] kVAs=[300, 300, ] taps=[1, 1, ] wdg=1 %R=0.4090833 wdg=2 %R=0.4090833 %imag=0.5 %loadloss=0.8181667 %noloadloss=0.1525 Xhl=3.505
New "Transformer.05410_g2100eg9700" phases=3 buses=[n292283.1.2.3, g2100eg9700_n292283_sec.1.2.3, ] conns=[wye, wye, ] kVs=[34.5, 0.48, ] kVAs=[150, 150, ] taps=[1, 1, ] wdg=1 %R=0.4578333 wdg=2 %R=0.4578333 %imag=0.5 %loadloss=0.9156667 %noloadloss=0.1546667 Xhl=2.9
New "Transformer.05410_g2100gi2700" phases=1 buses=[n292330.3, g2100gi2700_n292330_sec.3, ] conns=[wye, wye, ] kVs=[19.91858, 0.24, ] kVAs=[25, 25, ] taps=[1, 1, ] wdg=1 %R=0.658 wdg=2 %R=0.658 %imag=0.5 %loadloss=1.316 %noloadloss=0.198 Xhl=1.745
New "Transformer.05410_g2100gj2300" phases=3 buses=[n292354.1.2.3, g2100gj2300_n292354_sec.1.2.3, ] conns=[wye, wye, ] kVs=[34.5, 0.48, ] kVAs=[300, 300, ] taps=[1, 1, ] wdg=1 %R=0.4090833 wdg=2 %R=0.4090833 %imag=0.5 %loadloss=0.8181667 %noloadloss=0.1525 Xhl=3.505
New "Transformer.05410_g2100gj9100" phases=3 buses=[n292332.1.2.3, g2100gj9100_n292332_sec.1.2.3, ] conns=[wye, wye, ] kVs=[34.5, 0.48, ] kVAs=[150, 150, ] taps=[1, 1, ] wdg=1 %R=0.4578333 wdg=2 %R=0.4578333 %imag=0.5 %loadloss=0.9156667 %noloadloss=0.1546667 Xhl=2.9
New "Transformer.05410_g2100gi5400" phases=3 buses=[n292325.1.2.3, g2100gi5400_n292325_sec.1.2.3, ] conns=[wye, wye, ] kVs=[34.5, 0.48, ] kVAs=[150, 150, ] taps=[1, 1, ] wdg=1 %R=0.4578333 wdg=2 %R=0.4578333 %imag=0.5 %loadloss=0.9156667 %noloadloss=0.1546667 Xhl=2.9
New "Transformer.05410_g2100jl9000" phases=3 buses=[n292352.1.2.3, g2100jl9000_n292352_sec.1.2.3, ] conns=[wye, wye, ] kVs=[34.5, 0.48, ] kVAs=[750, 750, ] taps=[1, 1, ] wdg=1 %R=0.353 wdg=2 %R=0.353 %imag=0.5 %loadloss=0.706 %noloadloss=0.1492 Xhl=5.27
New "Transformer.05410_g2100jj1000" phases=3 buses=[n292352.1.2.3, g2100jj1000_n292352_sec.1.2.3, ] conns=[wye, wye, ] kVs=[34.5, 0.48, ] kVAs=[150, 150, ] taps=[1, 1, ] wdg=1 %R=0.4578333 wdg=2 %R=0.4578333 %imag=0.5 %loadloss=0.9156667 %noloadloss=0.1546667 Xhl=2.9
New "Transformer.05410_g2100ik6900" phases=3 buses=[n292403.1.2.3, g2100ik6900_n292403_sec.1.2.3, ] conns=[wye, wye, ] kVs=[34.5, 0.48, ] kVAs=[300, 300, ] taps=[1, 1, ] wdg=1 %R=0.4090833 wdg=2 %R=0.4090833 %imag=0.5 %loadloss=0.8181667 %noloadloss=0.1525 Xhl=3.505
New "Transformer.05410_g2100il4000" phases=3 buses=[n292400.1.2.3, g2100il4000_n292400_sec.1.2.3, ] conns=[wye, wye, ] kVs=[34.5, 0.48, ] kVAs=[500, 500, ] taps=[1, 1, ] wdg=1 %R=0.3866 wdg=2 %R=0.3866 %imag=0.5 %loadloss=0.7732 %noloadloss=0.1563 Xhl=3.675
New "Transformer.05410_g2100ji1800" phases=1 buses=[n292338.1, g2100ji1800_n292338_sec.1, ] conns=[wye, wye, ] kVs=[19.91858, 0.24, ] kVAs=[25, 25, ] taps=[1, 1, ] wdg=1 %R=0.633 wdg=2 %R=0.633 %imag=0.5 %loadloss=1.266 %noloadloss=0.248 Xhl=1.835
New "Transformer.05410_g2100hi8200" phases=3 buses=[n292329.1.2.3, g2100hi8200_n292329_sec.1.2.3, ] conns=[wye, wye, ] kVs=[34.5, 0.48, ] kVAs=[300, 300, ] taps=[1, 1, ] wdg=1 %R=0.4090833 wdg=2 %R=0.4090833 %imag=0.5 %loadloss=0.8181667 %noloadloss=0.1525 Xhl=3.505
New "Transformer.05410_g2100gj2600" phases=3 buses=[n292359.1.2.3, g2100gj2600_n292359_sec.1.2.3, ] conns=[wye, wye, ] kVs=[34.5, 0.48, ] kVAs=[150, 150, ] taps=[1, 1, ] wdg=1 %R=0.4578333 wdg=2 %R=0.4578333 %imag=0.5 %loadloss=0.9156667 %noloadloss=0.1546667 Xhl=2.9
New "Transformer.05410_g2100gj1600" phases=1 buses=[n292364.1, g2100gj1600_n292364_sec.1, ] conns=[wye, wye, ] kVs=[19.91858, 0.24, ] kVAs=[100, 100, ] taps=[1, 1, ] wdg=1 %R=0.67875 wdg=2 %R=0.67875 %imag=0.5 %loadloss=1.3575 %noloadloss=0.131 Xhl=3.29
New "Transformer.05410_g2100fj3800" phases=3 buses=[n292380.1.2.3, g2100fj3800_n292380_sec.1.2.3, ] conns=[wye, wye, ] kVs=[34.5, 0.48, ] kVAs=[500, 500, ] taps=[1, 1, ] wdg=1 %R=0.3866 wdg=2 %R=0.3866 %imag=0.5 %loadloss=0.7732 %noloadloss=0.1563 Xhl=3.675
New "Transformer.05410_g2100fj4400" phases=3 buses=[n292396.1.2.3, g2100fj4400_n292396_sec.1.2.3, ] conns=[wye, wye, ] kVs=[34.5, 0.48, ] kVAs=[150, 150, ] taps=[1, 1, ] wdg=1 %R=0.4578333 wdg=2 %R=0.4578333 %imag=0.5 %loadloss=0.9156667 %noloadloss=0.1546667 Xhl=2.9
New "Transformer.05410_g2100fl1200" phases=3 buses=[n292405.1.2.3, g2100fl1200_n292405_sec.1.2.3, ] conns=[wye, wye, ] kVs=[34.5, 0.48, ] kVAs=[150, 150, ] taps=[1, 1, ] wdg=1 %R=0.4578333 wdg=2 %R=0.4578333 %imag=0.5 %loadloss=0.9156667 %noloadloss=0.1546667 Xhl=2.9
New "Transformer.05410_g2100fk9800" phases=1 buses=[n292385.1, g2100fk9800_n292385_sec.1, ] conns=[wye, wye, ] kVs=[19.91858, 0.24, ] kVAs=[167, 167, ] taps=[1, 1, ] wdg=1 %R=0.4167665 wdg=2 %R=0.4167665 %imag=0.5 %loadloss=0.8335329 %noloadloss=0.161976 Xhl=2.355
New "Transformer.05410_g2100gk6700" phases=3 buses=[n292395.1.2.3, g2100gk6700_n292395_sec.1.2.3, ] conns=[wye, wye, ] kVs=[34.5, 0.48, ] kVAs=[150, 150, ] taps=[1, 1, ] wdg=1 %R=0.567 wdg=2 %R=0.567 %imag=0.5 %loadloss=1.134 %noloadloss=0.181 Xhl=1.965
New "Transformer.05410_g2100gk5700" phases=3 buses=[n292395.1.2.3, g2100gk5700_n292395_sec.1.2.3, ] conns=[wye, wye, ] kVs=[34.5, 0.48, ] kVAs=[75, 75, ] taps=[1, 1, ] wdg=1 %R=0.658 wdg=2 %R=0.658 %imag=0.5 %loadloss=1.316 %noloadloss=0.198 Xhl=1.745
New "Transformer.05410_g2100gk8000" phases=1 buses=[n292386.1, g2100gk8000_n292386_sec.1, ] conns=[wye, wye, ] kVs=[19.91858, 0.24, ] kVAs=[50, 50, ] taps=[1, 1, ] wdg=1 %R=0.567 wdg=2 %R=0.567 %imag=0.5 %loadloss=1.134 %noloadloss=0.181 Xhl=1.965
New "Transformer.05410_g2100gk8200" phases=3 buses=[n292379.1.2.3, g2100gk8200_n292379_sec.1.2.3, ] conns=[wye, wye, ] kVs=[34.5, 0.48, ] kVAs=[150, 150, ] taps=[1, 1, ] wdg=1 %R=0.567 wdg=2 %R=0.567 %imag=0.5 %loadloss=1.134 %noloadloss=0.181 Xhl=1.965
New "Transformer.05410_g2100gj9500" phases=3 buses=[n292365.1.2.3, g2100gj9500_n292365_sec.1.2.3, ] conns=[wye, wye, ] kVs=[34.5, 0.48, ] kVAs=[500, 500, ] taps=[1, 1, ] wdg=1 %R=0.3866 wdg=2 %R=0.3866 %imag=0.5 %loadloss=0.7732 %noloadloss=0.1563 Xhl=3.675
New "Transformer.05410_g2100gj8900" phases=1 buses=[n292370.2, g2100gj8900_n292370_sec.2, ] conns=[wye, wye, ] kVs=[19.91858, 0.24, ] kVAs=[50, 50, ] taps=[1, 1, ] wdg=1 %R=0.567 wdg=2 %R=0.567 %imag=0.5 %loadloss=1.134 %noloadloss=0.181 Xhl=1.965
New "Transformer.05410_g2100fk6600" phases=1 buses=[n292401.1, g2100fk6600_n292401_sec.1, ] conns=[wye, wye, ] kVs=[19.91858, 0.24, ] kVAs=[15, 15, ] taps=[1, 1, ] wdg=1 %R=0.7466667 wdg=2 %R=0.7466667 %imag=0.5 %loadloss=1.493333 %noloadloss=0.2733333 Xhl=2.18
New "Transformer.05410_g2100fl6300" phases=1 buses=[n292402.3, g2100fl6300_n292402_sec.3, ] conns=[wye, wye, ] kVs=[19.91858, 0.24, ] kVAs=[10, 10, ] taps=[1, 1, ] wdg=1 %R=0.7 wdg=2 %R=0.7 %imag=0.5 %loadloss=1.4 %noloadloss=0.325 Xhl=1.575
New "Transformer.05410_g2100gl2400" phases=3 buses=[n292406.1.2.3, g2100gl2400_n292406_sec.1.2.3, ] conns=[wye, wye, ] kVs=[34.5, 0.48, ] kVAs=[150, 150, ] taps=[1, 1, ] wdg=1 %R=0.4578333 wdg=2 %R=0.4578333 %imag=0.5 %loadloss=0.9156667 %noloadloss=0.1546667 Xhl=2.9
New "Transformer.05410_g2100gm9700" phases=1 buses=[n292423.3, g2100gm9700_n292423_sec.3, ] conns=[wye, wye, ] kVs=[19.91858, 0.24, ] kVAs=[250, 250, ] taps=[1, 1, ] wdg=1 %R=0.2325 wdg=2 %R=0.2325 %imag=0.5 %loadloss=0.465 %noloadloss=0.1322 Xhl=3
New "Transformer.05410_g2100hn5600" phases=1 buses=[n292453.3, g2100hn5600_n292453_sec.3, ] conns=[wye, wye, ] kVs=[19.91858, 0.24, ] kVAs=[167, 167, ] taps=[1, 1, ] wdg=1 %R=0.4167665 wdg=2 %R=0.4167665 %imag=0.5 %loadloss=0.8335329 %noloadloss=0.161976 Xhl=2.355
New "Transformer.05410_g2100in2700" phases=1 buses=[n292475.3, g2100in2700_n292475_sec.3, ] conns=[wye, wye, ] kVs=[19.91858, 0.24, ] kVAs=[167, 167, ] taps=[1, 1, ] wdg=1 %R=0.4167665 wdg=2 %R=0.4167665 %imag=0.5 %loadloss=0.8335329 %noloadloss=0.161976 Xhl=2.355
New "Transformer.05410_g2100hm9900" phases=1 buses=[n292433.3, g2100hm9900_n292433_sec.3, ] conns=[wye, wye, ] kVs=[19.91858, 0.24, ] kVAs=[250, 250, ] taps=[1, 1, ] wdg=1 %R=0.2325 wdg=2 %R=0.2325 %imag=0.5 %loadloss=0.465 %noloadloss=0.1322 Xhl=3
New "Transformer.05410_g2100in7700" phases=1 buses=[n292438.3, g2100in7700_n292438_sec.3, ] conns=[wye, wye, ] kVs=[19.91858, 0.24, ] kVAs=[167, 167, ] taps=[1, 1, ] wdg=1 %R=0.4167665 wdg=2 %R=0.4167665 %imag=0.5 %loadloss=0.8335329 %noloadloss=0.161976 Xhl=2.355
New "Transformer.05410_g2100im6700" phases=1 buses=[n292430.3, g2100im6700_n292430_sec.3, ] conns=[wye, wye, ] kVs=[19.91858, 0.24, ] kVAs=[167, 167, ] taps=[1, 1, ] wdg=1 %R=0.4167665 wdg=2 %R=0.4167665 %imag=0.5 %loadloss=0.8335329 %noloadloss=0.161976 Xhl=2.355
New "Transformer.05410_g2100il1000" phases=1 buses=[n292412.3, g2100il1000_n292412_sec.3, ] conns=[wye, wye, ] kVs=[19.91858, 0.24, ] kVAs=[167, 167, ] taps=[1, 1, ] wdg=1 %R=0.4167665 wdg=2 %R=0.4167665 %imag=0.5 %loadloss=0.8335329 %noloadloss=0.161976 Xhl=2.355
New "Transformer.05410_g2100hm3200" phases=1 buses=[n292420.3, g2100hm3200_n292420_sec.3, ] conns=[wye, wye, ] kVs=[19.91858, 0.24, ] kVAs=[100, 100, ] taps=[1, 1, ] wdg=1 %R=0.67875 wdg=2 %R=0.67875 %imag=0.5 %loadloss=1.3575 %noloadloss=0.131 Xhl=3.29
New "Transformer.05410_g2100fl3500" phases=1 buses=[n292410.2, g2100fl3500_n292410_sec.2, ] conns=[wye, wye, ] kVs=[19.91858, 0.24, ] kVAs=[50, 50, ] taps=[1, 1, ] wdg=1 %R=0.567 wdg=2 %R=0.567 %imag=0.5 %loadloss=1.134 %noloadloss=0.181 Xhl=1.965
New "Transformer.05410_g2100fm1500" phases=1 buses=[n292431.3, g2100fm1500_n292431_sec.3, ] conns=[wye, wye, ] kVs=[19.91858, 0.24, ] kVAs=[15, 15, ] taps=[1, 1, ] wdg=1 %R=0.7466667 wdg=2 %R=0.7466667 %imag=0.5 %loadloss=1.493333 %noloadloss=0.2733333 Xhl=2.18
New "Transformer.05410_g2100gm6700" phases=3 buses=[n292446.1.2.3, g2100gm6700_n292446_sec.1.2.3, ] conns=[wye, wye, ] kVs=[34.5, 0.48, ] kVAs=[300, 300, ] taps=[1, 1, ] wdg=1 %R=0.4090833 wdg=2 %R=0.4090833 %imag=0.5 %loadloss=0.8181667 %noloadloss=0.1525 Xhl=3.505
New "Transformer.05410_g2100gm5300" phases=3 buses=[n292446.1.2.3, g2100gm5300_n292446_sec.1.2.3, ] conns=[wye, wye, ] kVs=[34.5, 0.48, ] kVAs=[150, 150, ] taps=[1, 1, ] wdg=1 %R=0.4578333 wdg=2 %R=0.4578333 %imag=0.5 %loadloss=0.9156667 %noloadloss=0.1546667 Xhl=2.9
New "Transformer.05410_g2100gm1700" phases=3 buses=[n292446.1.2.3, g2100gm1700_n292446_sec.1.2.3, ] conns=[wye, wye, ] kVs=[34.5, 0.48, ] kVAs=[150, 150, ] taps=[1, 1, ] wdg=1 %R=0.4578333 wdg=2 %R=0.4578333 %imag=0.5 %loadloss=0.9156667 %noloadloss=0.1546667 Xhl=2.9
New "Transformer.05410_g2100gn7600" phases=1 buses=[n292474.1, g2100gn7600_n292474_sec.1, ] conns=[wye, wye, ] kVs=[19.91858, 0.24, ] kVAs=[50, 50, ] taps=[1, 1, ] wdg=1 %R=0.4385 wdg=2 %R=0.4385 %imag=0.5 %loadloss=0.877 %noloadloss=0.181 Xhl=2.025
New "Transformer.05410_g2100gn7300" phases=1 buses=[n292464.1, g2100gn7300_n292464_sec.1, ] conns=[wye, wye, ] kVs=[19.91858, 0.24, ] kVAs=[50, 50, ] taps=[1, 1, ] wdg=1 %R=0.4385 wdg=2 %R=0.4385 %imag=0.5 %loadloss=0.877 %noloadloss=0.181 Xhl=2.025
New "Transformer.05410_g2100gn4300" phases=1 buses=[n292461.1, g2100gn4300_n292461_sec.1, ] conns=[wye, wye, ] kVs=[19.91858, 0.24, ] kVAs=[100, 100, ] taps=[1, 1, ] wdg=1 %R=0.67875 wdg=2 %R=0.67875 %imag=0.5 %loadloss=1.3575 %noloadloss=0.131 Xhl=3.29
New "Transformer.05410_g2100gn4600" phases=1 buses=[n292459.1, g2100gn4600_n292459_sec.1, ] conns=[wye, wye, ] kVs=[19.91858, 0.24, ] kVAs=[100, 100, ] taps=[1, 1, ] wdg=1 %R=0.67875 wdg=2 %R=0.67875 %imag=0.5 %loadloss=1.3575 %noloadloss=0.131 Xhl=3.29
New "Transformer.05410_g2100gn1400" phases=1 buses=[n292471.1, g2100gn1400_n292471_sec.1, ] conns=[wye, wye, ] kVs=[19.91858, 0.24, ] kVAs=[100, 100, ] taps=[1, 1, ] wdg=1 %R=0.67875 wdg=2 %R=0.67875 %imag=0.5 %loadloss=1.3575 %noloadloss=0.131 Xhl=3.29
New "Transformer.05410_g2100gn0400" phases=1 buses=[n292471.1, g2100gn0400_n292471_sec.1, ] conns=[wye, wye, ] kVs=[19.91858, 0.24, ] kVAs=[167, 167, ] taps=[1, 1, ] wdg=1 %R=0.4167665 wdg=2 %R=0.4167665 %imag=0.5 %loadloss=0.8335329 %noloadloss=0.161976 Xhl=2.355
New "Transformer.05410_g2100gn2400" phases=1 buses=[n292466.1, g2100gn2400_n292466_sec.1, ] conns=[wye, wye, ] kVs=[19.91858, 0.24, ] kVAs=[167, 167, ] taps=[1, 1, ] wdg=1 %R=0.4167665 wdg=2 %R=0.4167665 %imag=0.5 %loadloss=0.8335329 %noloadloss=0.161976 Xhl=2.355
New "Transformer.05410_g2100go2400" phases=1 buses=[n292515.3, g2100go2400_n292515_sec.3, ] conns=[wye, wye, ] kVs=[19.91858, 0.24, ] kVAs=[100, 100, ] taps=[1, 1, ] wdg=1 %R=0.67875 wdg=2 %R=0.67875 %imag=0.5 %loadloss=1.3575 %noloadloss=0.131 Xhl=3.29
New "Transformer.05410_g2100gp1100" phases=1 buses=[n292528.3, g2100gp1100_n292528_sec.3, ] conns=[wye, wye, ] kVs=[19.91858, 0.24, ] kVAs=[100, 100, ] taps=[1, 1, ] wdg=1 %R=0.67875 wdg=2 %R=0.67875 %imag=0.5 %loadloss=1.3575 %noloadloss=0.131 Xhl=3.29
New "Transformer.05410_g2100fo1700" phases=1 buses=[n292522.3, g2100fo1700_n292522_sec.3, ] conns=[wye, wye, ] kVs=[19.91858, 0.24, ] kVAs=[100, 100, ] taps=[1, 1, ] wdg=1 %R=0.67875 wdg=2 %R=0.67875 %imag=0.5 %loadloss=1.3575 %noloadloss=0.131 Xhl=3.29
New "Transformer.05410_g2100fo1600" phases=1 buses=[n292502.3, g2100fo1600_n292502_sec.3, ] conns=[wye, wye, ] kVs=[19.91858, 0.24, ] kVAs=[100, 100, ] taps=[1, 1, ] wdg=1 %R=0.67875 wdg=2 %R=0.67875 %imag=0.5 %loadloss=1.3575 %noloadloss=0.131 Xhl=3.29
New "Transformer.05410_g2100eo2100" phases=1 buses=[n292498.3, g2100eo2100_n292498_sec.3, ] conns=[wye, wye, ] kVs=[19.91858, 0.24, ] kVAs=[100, 100, ] taps=[1, 1, ] wdg=1 %R=0.67875 wdg=2 %R=0.67875 %imag=0.5 %loadloss=1.3575 %noloadloss=0.131 Xhl=3.29
New "Transformer.05410_g2100eo1300" phases=1 buses=[n292510.3, g2100eo1300_n292510_sec.3, ] conns=[wye, wye, ] kVs=[19.91858, 0.24, ] kVAs=[100, 100, ] taps=[1, 1, ] wdg=1 %R=0.67875 wdg=2 %R=0.67875 %imag=0.5 %loadloss=1.3575 %noloadloss=0.131 Xhl=3.29
New "Transformer.05410_g2100do7000" phases=1 buses=[n283865.3, g2100do7000_n283865_sec.3, ] conns=[wye, wye, ] kVs=[19.91858, 0.24, ] kVAs=[167, 167, ] taps=[1, 1, ] wdg=1 %R=0.4167665 wdg=2 %R=0.4167665 %imag=0.5 %loadloss=0.8335329 %noloadloss=0.161976 Xhl=2.355
New "Transformer.05410_g2100dn4800" phases=1 buses=[n283861.3, g2100dn4800_n283861_sec.3, ] conns=[wye, wye, ] kVs=[19.91858, 0.24, ] kVAs=[250, 250, ] taps=[1, 1, ] wdg=1 %R=0.2325 wdg=2 %R=0.2325 %imag=0.5 %loadloss=0.465 %noloadloss=0.1322 Xhl=3
New "Transformer.05410_g2100co8200" phases=1 buses=[n283869.3, g2100co8200_n283869_sec.3, ] conns=[wye, wye, ] kVs=[19.91858, 0.24, ] kVAs=[50, 50, ] taps=[1, 1, ] wdg=1 %R=0.4385 wdg=2 %R=0.4385 %imag=0.5 %loadloss=0.877 %noloadloss=0.181 Xhl=2.025
New "Transformer.05410_g2100cn4900" phases=1 buses=[n283858.3, g2100cn4900_n283858_sec.3, ] conns=[wye, wye, ] kVs=[19.91858, 0.24, ] kVAs=[50, 50, ] taps=[1, 1, ] wdg=1 %R=0.4385 wdg=2 %R=0.4385 %imag=0.5 %loadloss=0.877 %noloadloss=0.181 Xhl=2.025
New "Transformer.05410_g2100bn9700" phases=1 buses=[n283853.3, g2100bn9700_n283853_sec.3, ] conns=[wye, wye, ] kVs=[19.91858, 0.24, ] kVAs=[50, 50, ] taps=[1, 1, ] wdg=1 %R=0.4385 wdg=2 %R=0.4385 %imag=0.5 %loadloss=0.877 %noloadloss=0.181 Xhl=2.025
New "Transformer.05410_g2100cn4000" phases=1 buses=[n283847.3, g2100cn4000_n283847_sec.3, ] conns=[wye, wye, ] kVs=[19.91858, 0.24, ] kVAs=[50, 50, ] taps=[1, 1, ] wdg=1 %R=0.4385 wdg=2 %R=0.4385 %imag=0.5 %loadloss=0.877 %noloadloss=0.181 Xhl=2.025
New "Transformer.05410_g2100cn9200" phases=1 buses=[n283841.3, g2100cn9200_n283841_sec.3, ] conns=[wye, wye, ] kVs=[19.91858, 0.24, ] kVAs=[50, 50, ] taps=[1, 1, ] wdg=1 %R=0.4385 wdg=2 %R=0.4385 %imag=0.5 %loadloss=0.877 %noloadloss=0.181 Xhl=2.025
New "Transformer.05410_g2100dn3000" phases=1 buses=[n283838.3, g2100dn3000_n283838_sec.3, ] conns=[wye, wye, ] kVs=[19.91858, 0.24, ] kVAs=[50, 50, ] taps=[1, 1, ] wdg=1 %R=0.4385 wdg=2 %R=0.4385 %imag=0.5 %loadloss=0.877 %noloadloss=0.181 Xhl=2.025
New "Transformer.05410_g2100dm2900" phases=1 buses=[n283831.3, g2100dm2900_n283831_sec.3, ] conns=[wye, wye, ] kVs=[19.91858, 0.24, ] kVAs=[50, 50, ] taps=[1, 1, ] wdg=1 %R=0.4385 wdg=2 %R=0.4385 %imag=0.5 %loadloss=0.877 %noloadloss=0.181 Xhl=2.025
New "Transformer.05410_g2100dm6300" phases=1 buses=[n283816.3, g2100dm6300_n283816_sec.3, ] conns=[wye, wye, ] kVs=[19.91858, 0.24, ] kVAs=[100, 100, ] taps=[1, 1, ] wdg=1 %R=0.67875 wdg=2 %R=0.67875 %imag=0.5 %loadloss=1.3575 %noloadloss=0.131 Xhl=3.29
New "Transformer.05410_g2100em1500" phases=1 buses=[n292428.3, g2100em1500_n292428_sec.3, ] conns=[wye, wye, ] kVs=[19.91858, 0.24, ] kVAs=[100, 100, ] taps=[1, 1, ] wdg=1 %R=0.67875 wdg=2 %R=0.67875 %imag=0.5 %loadloss=1.3575 %noloadloss=0.131 Xhl=3.29
New "Transformer.05410_g2100em6500" phases=1 buses=[n292425.3, g2100em6500_n292425_sec.3, ] conns=[wye, wye, ] kVs=[19.91858, 0.24, ] kVAs=[100, 100, ] taps=[1, 1, ] wdg=1 %R=0.67875 wdg=2 %R=0.67875 %imag=0.5 %loadloss=1.3575 %noloadloss=0.131 Xhl=3.29
New "Transformer.05410_g2100en7100" phases=1 buses=[n292449.3, g2100en7100_n292449_sec.3, ] conns=[wye, wye, ] kVs=[19.91858, 0.24, ] kVAs=[50, 50, ] taps=[1, 1, ] wdg=1 %R=0.4385 wdg=2 %R=0.4385 %imag=0.5 %loadloss=0.877 %noloadloss=0.181 Xhl=2.025
New "Transformer.05410_g2100en2200" phases=1 buses=[n292457.3, g2100en2200_n292457_sec.3, ] conns=[wye, wye, ] kVs=[19.91858, 0.24, ] kVAs=[50, 50, ] taps=[1, 1, ] wdg=1 %R=0.4385 wdg=2 %R=0.4385 %imag=0.5 %loadloss=0.877 %noloadloss=0.181 Xhl=2.025
New "Transformer.05410_g2100en8600" phases=1 buses=[n292479.3, g2100en8600_n292479_sec.3, ] conns=[wye, wye, ] kVs=[19.91858, 0.24, ] kVAs=[100, 100, ] taps=[1, 1, ] wdg=1 %R=0.67875 wdg=2 %R=0.67875 %imag=0.5 %loadloss=1.3575 %noloadloss=0.131 Xhl=3.29
New "Transformer.05410_g2100fn7600" phases=3 buses=[n292486.1.2.3, g2100fn7600_n292486_sec.1.2.3, ] conns=[wye, wye, ] kVs=[34.5, 0.48, ] kVAs=[500, 500, ] taps=[1, 1, ] wdg=1 %R=0.3866 wdg=2 %R=0.3866 %imag=0.5 %loadloss=0.7732 %noloadloss=0.1563 Xhl=3.675
New "Transformer.05410_g2100fo3000" phases=3 buses=[n292507.1.2.3, g2100fo3000_n292507_sec.1.2.3, ] conns=[wye, wye, ] kVs=[34.5, 0.48, ] kVAs=[150, 150, ] taps=[1, 1, ] wdg=1 %R=0.567 wdg=2 %R=0.567 %imag=0.5 %loadloss=1.134 %noloadloss=0.181 Xhl=1.965
New "Transformer.05410_g2100fo5600" phases=3 buses=[n292520.1.2.3, g2100fo5600_n292520_sec.1.2.3, ] conns=[wye, wye, ] kVs=[34.5, 0.48, ] kVAs=[150, 150, ] taps=[1, 1, ] wdg=1 %R=0.567 wdg=2 %R=0.567 %imag=0.5 %loadloss=1.134 %noloadloss=0.181 Xhl=1.965
New "Transformer.05410_g2100go7200" phases=3 buses=[n292517.1.2.3, g2100go7200_n292517_sec.1.2.3, ] conns=[wye, wye, ] kVs=[34.5, 0.48, ] kVAs=[750, 750, ] taps=[1, 1, ] wdg=1 %R=0.353 wdg=2 %R=0.353 %imag=0.5 %loadloss=0.706 %noloadloss=0.1492 Xhl=5.27
New "Transformer.05410_g2100go5000" phases=3 buses=[n292503.1.2.3, g2100go5000_n292503_sec.1.2.3, ] conns=[wye, wye, ] kVs=[34.5, 0.48, ] kVAs=[150, 150, ] taps=[1, 1, ] wdg=1 %R=0.4578333 wdg=2 %R=0.4578333 %imag=0.5 %loadloss=0.9156667 %noloadloss=0.1546667 Xhl=2.9
New "Transformer.05410_g2100go3300" phases=1 buses=[n292513.1, g2100go3300_n292513_sec.1, ] conns=[wye, wye, ] kVs=[19.91858, 0.24, ] kVAs=[100, 100, ] taps=[1, 1, ] wdg=1 %R=0.67875 wdg=2 %R=0.67875 %imag=0.5 %loadloss=1.3575 %noloadloss=0.131 Xhl=3.29
New "Transformer.05410_g2101ga2000" phases=3 buses=[n292532.1.2.3, g2101ga2000_n292532_sec.1.2.3, ] conns=[wye, wye, ] kVs=[34.5, 0.48, ] kVAs=[150, 150, ] taps=[1, 1, ] wdg=1 %R=0.567 wdg=2 %R=0.567 %imag=0.5 %loadloss=1.134 %noloadloss=0.181 Xhl=1.965
New "Transformer.05410_g2101ha2400" phases=3 buses=[n292547.1.2.3, g2101ha2400_n292547_sec.1.2.3, ] conns=[wye, wye, ] kVs=[34.5, 0.48, ] kVAs=[75, 75, ] taps=[1, 1, ] wdg=1 %R=0.658 wdg=2 %R=0.658 %imag=0.5 %loadloss=1.316 %noloadloss=0.198 Xhl=1.745
New "Transformer.05410_g2101ha7500" phases=1 buses=[n292550.3, g2101ha7500_n292550_sec.3, ] conns=[wye, wye, ] kVs=[19.91858, 0.24, ] kVAs=[25, 25, ] taps=[1, 1, ] wdg=1 %R=0.658 wdg=2 %R=0.658 %imag=0.5 %loadloss=1.316 %noloadloss=0.198 Xhl=1.745
New "Transformer.05410_g2101ia8100" phases=1 buses=[n292540.2, g2101ia8100_n292540_sec_a.2, ] conns=[wye, wye, ] kVs=[19.91858, 0.24, ] kVAs=[15, 15, ] taps=[1, 1, ] wdg=1 %R=0.7466667 wdg=2 %R=0.7466667 %imag=0.5 %loadloss=1.493333 %noloadloss=0.2733333 Xhl=2.18
New "Transformer.05410_g2101ia3300" phases=3 buses=[n292540.1.2.3, g2101ia3300_n292540_sec.1.2.3, ] conns=[wye, wye, ] kVs=[34.5, 0.48, ] kVAs=[150, 150, ] taps=[1, 1, ] wdg=1 %R=0.567 wdg=2 %R=0.567 %imag=0.5 %loadloss=1.134 %noloadloss=0.181 Xhl=1.965
New "Transformer.05410_g2100jp2000" phases=3 buses=[n300602.1.2.3, g2100jp2000_n300602_sec.1.2.3, ] conns=[wye, wye, ] kVs=[34.5, 0.48, ] kVAs=[75, 75, ] taps=[1, 1, ] wdg=1 %R=0.658 wdg=2 %R=0.658 %imag=0.5 %loadloss=1.316 %noloadloss=0.198 Xhl=1.745
New "Transformer.05410_g2100jp3100" phases=1 buses=[n300601.1, g2100jp3100_n300601_sec.1, ] conns=[wye, wye, ] kVs=[19.91858, 0.24, ] kVAs=[25, 25, ] taps=[1, 1, ] wdg=1 %R=0.658 wdg=2 %R=0.658 %imag=0.5 %loadloss=1.316 %noloadloss=0.198 Xhl=1.745
New "Transformer.05410_g2100jo5900" phases=1 buses=[n300601.3, g2100jo5900_n300601_sec.3, ] conns=[wye, wye, ] kVs=[19.91858, 0.24, ] kVAs=[50, 50, ] taps=[1, 1, ] wdg=1 %R=0.567 wdg=2 %R=0.567 %imag=0.5 %loadloss=1.134 %noloadloss=0.181 Xhl=1.965
New "Transformer.05410_g2100ko6600" phases=3 buses=[n300582.1.2.3, g2100ko6600_n300582_sec.1.2.3, ] conns=[wye, wye, ] kVs=[34.5, 0.48, ] kVAs=[75, 75, ] taps=[1, 1, ] wdg=1 %R=0.658 wdg=2 %R=0.658 %imag=0.5 %loadloss=1.316 %noloadloss=0.198 Xhl=1.745
New "Transformer.05410_g2100ko2700" phases=3 buses=[n300582.1.2.3, g2100ko2700_n300582_sec.1.2.3, ] conns=[wye, wye, ] kVs=[34.5, 0.48, ] kVAs=[150, 150, ] taps=[1, 1, ] wdg=1 %R=0.567 wdg=2 %R=0.567 %imag=0.5 %loadloss=1.134 %noloadloss=0.181 Xhl=1.965
New "Transformer.05410_g2100ko9900" phases=1 buses=[n300626.1, g2100ko9900_n300626_sec.1, ] conns=[wye, wye, ] kVs=[19.91858, 0.24, ] kVAs=[167, 167, ] taps=[1, 1, ] wdg=1 %R=0.4167665 wdg=2 %R=0.4167665 %imag=0.5 %loadloss=0.8335329 %noloadloss=0.161976 Xhl=2.355
New "Transformer.05410_g2101ja8400" phases=1 buses=[n300634.1, g2101ja8400_n300634_sec.1, ] conns=[wye, wye, ] kVs=[19.91858, 0.24, ] kVAs=[167, 167, ] taps=[1, 1, ] wdg=1 %R=0.4167665 wdg=2 %R=0.4167665 %imag=0.5 %loadloss=0.8335329 %noloadloss=0.161976 Xhl=2.355
New "Transformer.05410_g2101ka2300" phases=1 buses=[n300631.1, g2101ka2300_n300631_sec.1, ] conns=[wye, wye, ] kVs=[19.91858, 0.24, ] kVAs=[167, 167, ] taps=[1, 1, ] wdg=1 %R=0.4167665 wdg=2 %R=0.4167665 %imag=0.5 %loadloss=0.8335329 %noloadloss=0.161976 Xhl=2.355
New "Transformer.05410_g2101ka6200" phases=1 buses=[n300623.1, g2101ka6200_n300623_sec.1, ] conns=[wye, wye, ] kVs=[19.91858, 0.24, ] kVAs=[167, 167, ] taps=[1, 1, ] wdg=1 %R=0.4167665 wdg=2 %R=0.4167665 %imag=0.5 %loadloss=0.8335329 %noloadloss=0.161976 Xhl=2.355
New "Transformer.05410_g2101ka8300" phases=1 buses=[n300629.1, g2101ka8300_n300629_sec.1, ] conns=[wye, wye, ] kVs=[19.91858, 0.24, ] kVAs=[167, 167, ] taps=[1, 1, ] wdg=1 %R=0.4167665 wdg=2 %R=0.4167665 %imag=0.5 %loadloss=0.8335329 %noloadloss=0.161976 Xhl=2.355
New "Transformer.05410_g2101ka7500" phases=1 buses=[n300643.1, g2101ka7500_n300643_sec.1, ] conns=[wye, wye, ] kVs=[19.91858, 0.24, ] kVAs=[167, 167, ] taps=[1, 1, ] wdg=1 %R=0.4167665 wdg=2 %R=0.4167665 %imag=0.5 %loadloss=0.8335329 %noloadloss=0.161976 Xhl=2.355
New "Transformer.05410_g2101ka6800" phases=1 buses=[n300662.1, g2101ka6800_n300662_sec.1, ] conns=[wye, wye, ] kVs=[19.91858, 0.24, ] kVAs=[167, 167, ] taps=[1, 1, ] wdg=1 %R=0.4167665 wdg=2 %R=0.4167665 %imag=0.5 %loadloss=0.8335329 %noloadloss=0.161976 Xhl=2.355
New "Transformer.05410_g2101ka0900" phases=1 buses=[n300672.1, g2101ka0900_n300672_sec.1, ] conns=[wye, wye, ] kVs=[19.91858, 0.24, ] kVAs=[167, 167, ] taps=[1, 1, ] wdg=1 %R=0.4167665 wdg=2 %R=0.4167665 %imag=0.5 %loadloss=0.8335329 %noloadloss=0.161976 Xhl=2.355
New "Transformer.05410_g2101ka3900" phases=1 buses=[n300679.1, g2101ka3900_n300679_sec.1, ] conns=[wye, wye, ] kVs=[19.91858, 0.24, ] kVAs=[167, 167, ] taps=[1, 1, ] wdg=1 %R=0.4167665 wdg=2 %R=0.4167665 %imag=0.5 %loadloss=0.8335329 %noloadloss=0.161976 Xhl=2.355
New "Transformer.05410_g2101lb0200" phases=1 buses=[n300696.1, g2101lb0200_n300696_sec.1, ] conns=[wye, wye, ] kVs=[19.91858, 0.24, ] kVAs=[167, 167, ] taps=[1, 1, ] wdg=1 %R=0.4167665 wdg=2 %R=0.4167665 %imag=0.5 %loadloss=0.8335329 %noloadloss=0.161976 Xhl=2.355
New "Transformer.05410_g2101kb6100" phases=1 buses=[n300696.1, g2101kb6100_n300696_sec.1, ] conns=[wye, wye, ] kVs=[19.91858, 0.24, ] kVAs=[167, 167, ] taps=[1, 1, ] wdg=1 %R=0.4167665 wdg=2 %R=0.4167665 %imag=0.5 %loadloss=0.8335329 %noloadloss=0.161976 Xhl=2.355
New "Transformer.05410_g2101lb3300" phases=1 buses=[n300707.1, g2101lb3300_n300707_sec.1, ] conns=[wye, wye, ] kVs=[19.91858, 0.24, ] kVAs=[167, 167, ] taps=[1, 1, ] wdg=1 %R=0.4167665 wdg=2 %R=0.4167665 %imag=0.5 %loadloss=0.8335329 %noloadloss=0.161976 Xhl=2.355
New "Transformer.05410_g2101lb4400" phases=1 buses=[n300709.1, g2101lb4400_n300709_sec.1, ] conns=[wye, wye, ] kVs=[19.91858, 0.24, ] kVAs=[167, 167, ] taps=[1, 1, ] wdg=1 %R=0.4167665 wdg=2 %R=0.4167665 %imag=0.5 %loadloss=0.8335329 %noloadloss=0.161976 Xhl=2.355
New "Transformer.05410_g2101lb6300" phases=1 buses=[n300708.1, g2101lb6300_n300708_sec.1, ] conns=[wye, wye, ] kVs=[19.91858, 0.24, ] kVAs=[167, 167, ] taps=[1, 1, ] wdg=1 %R=0.4167665 wdg=2 %R=0.4167665 %imag=0.5 %loadloss=0.8335329 %noloadloss=0.161976 Xhl=2.355
New "Transformer.05410_g2101la6700" phases=1 buses=[n300658.1, g2101la6700_n300658_sec.1, ] conns=[wye, wye, ] kVs=[19.91858, 0.24, ] kVAs=[167, 167, ] taps=[1, 1, ] wdg=1 %R=0.4167665 wdg=2 %R=0.4167665 %imag=0.5 %loadloss=0.8335329 %noloadloss=0.161976 Xhl=2.355
New "Transformer.05410_g2101la3600" phases=1 buses=[n300650.1, g2101la3600_n300650_sec.1, ] conns=[wye, wye, ] kVs=[19.91858, 0.24, ] kVAs=[167, 167, ] taps=[1, 1, ] wdg=1 %R=0.4167665 wdg=2 %R=0.4167665 %imag=0.5 %loadloss=0.8335329 %noloadloss=0.161976 Xhl=2.355
New "Transformer.05410_g2100mo0000" phases=1 buses=[n300567.1, g2100mo0000_n300567_sec.1, ] conns=[wye, wye, ] kVs=[19.91858, 0.24, ] kVAs=[50, 50, ] taps=[1, 1, ] wdg=1 %R=0.567 wdg=2 %R=0.567 %imag=0.5 %loadloss=1.134 %noloadloss=0.181 Xhl=1.965
New "Transformer.05410_g2100mn4700" phases=1 buses=[n300558.2, g2100mn4700_n300558_sec.2, ] conns=[wye, wye, ] kVs=[19.91858, 0.24, ] kVAs=[50, 50, ] taps=[1, 1, ] wdg=1 %R=0.567 wdg=2 %R=0.567 %imag=0.5 %loadloss=1.134 %noloadloss=0.181 Xhl=1.965
New "Transformer.05410_g2100mn9200" phases=1 buses=[n300536.3, g2100mn9200_n300536_sec.3, ] conns=[wye, wye, ] kVs=[19.91858, 0.24, ] kVAs=[10, 10, ] taps=[1, 1, ] wdg=1 %R=0.7 wdg=2 %R=0.7 %imag=0.5 %loadloss=1.4 %noloadloss=0.325 Xhl=1.575
New "Transformer.05410_g2100mn1400" phases=1 buses=[n300510.1, g2100mn1400_n300510_sec.1, ] conns=[wye, wye, ] kVs=[19.91858, 0.24, ] kVAs=[10, 10, ] taps=[1, 1, ] wdg=1 %R=0.7 wdg=2 %R=0.7 %imag=0.5 %loadloss=1.4 %noloadloss=0.325 Xhl=1.575
New "Transformer.05410_g2100nl3900" phases=1 buses=[n300503.3, g2100nl3900_n300503_sec.3, ] conns=[wye, wye, ] kVs=[19.91858, 0.24, ] kVAs=[25, 25, ] taps=[1, 1, ] wdg=1 %R=0.658 wdg=2 %R=0.658 %imag=0.5 %loadloss=1.316 %noloadloss=0.198 Xhl=1.745
New "Transformer.05410_g2100ml7400" phases=1 buses=[n300497.3, g2100ml7400_n300497_sec.3, ] conns=[wye, wye, ] kVs=[19.91858, 0.24, ] kVAs=[15, 15, ] taps=[1, 1, ] wdg=1 %R=0.7466667 wdg=2 %R=0.7466667 %imag=0.5 %loadloss=1.493333 %noloadloss=0.2733333 Xhl=2.18
New "Transformer.05410_g2100mk7800" phases=1 buses=[n300492.3, g2100mk7800_n300492_sec.3, ] conns=[wye, wye, ] kVs=[19.91858, 0.24, ] kVAs=[10, 10, ] taps=[1, 1, ] wdg=1 %R=0.7 wdg=2 %R=0.7 %imag=0.5 %loadloss=1.4 %noloadloss=0.325 Xhl=1.575
New "Transformer.05410_g2100nk6800" phases=1 buses=[n300481.2, g2100nk6800_n300481_sec.2, ] conns=[wye, wye, ] kVs=[19.91858, 0.24, ] kVAs=[25, 25, ] taps=[1, 1, ] wdg=1 %R=0.658 wdg=2 %R=0.658 %imag=0.5 %loadloss=1.316 %noloadloss=0.198 Xhl=1.745
New "Transformer.05410_g2100nk9200" phases=3 buses=[n300478.1.2.3, g2100nk9200_n300478_sec.1.2.3, ] conns=[wye, wye, ] kVs=[34.5, 0.48, ] kVAs=[75, 75, ] taps=[1, 1, ] wdg=1 %R=0.658 wdg=2 %R=0.658 %imag=0.5 %loadloss=1.316 %noloadloss=0.198 Xhl=1.745
New "Transformer.05410_g2100nj8400" phases=3 buses=[n300472.1.2.3, g2100nj8400_n300472_sec.1.2.3, ] conns=[wye, wye, ] kVs=[34.5, 0.48, ] kVAs=[300, 300, ] taps=[1, 1, ] wdg=1 %R=0.4090833 wdg=2 %R=0.4090833 %imag=0.5 %loadloss=0.8181667 %noloadloss=0.1525 Xhl=3.505
New "Transformer.05410_g2100nj7400" phases=1 buses=[n300463.1, g2100nj7400_n300463_sec.1, ] conns=[wye, wye, ] kVs=[19.91858, 0.24, ] kVAs=[25, 25, ] taps=[1, 1, ] wdg=1 %R=0.633 wdg=2 %R=0.633 %imag=0.5 %loadloss=1.266 %noloadloss=0.248 Xhl=1.835
New "Transformer.05410_g2100ni4800" phases=3 buses=[n300455.1.2.3, g2100ni4800_n300455_sec.1.2.3, ] conns=[wye, wye, ] kVs=[34.5, 0.48, ] kVAs=[1500, 1500, ] taps=[1, 1, ] wdg=1 %R=0.33725 wdg=2 %R=0.33725 %imag=0.5 %loadloss=0.6745 %noloadloss=0.1279 Xhl=5.46
New "Transformer.05410_g2100nj9400" phases=3 buses=[n300465.1.2.3, g2100nj9400_n300465_sec.1.2.3, ] conns=[wye, wye, ] kVs=[34.5, 0.48, ] kVAs=[1000, 1000, ] taps=[1, 1, ] wdg=1 %R=0.37995 wdg=2 %R=0.37995 %imag=0.5 %loadloss=0.7599 %noloadloss=0.13255 Xhl=5.415
New "Transformer.step_05410_g2100oj1900" phases=1 buses=[n300474.2, n300474_lo.2, ] conns=[wye, wye, ] kVs=[19.92, 7.62, ] kVAs=[167, 167, ] taps=[1, 1, ] wdg=1 %R=0.395 wdg=2 %R=0.395 Xhl=4.2 %Rs=[0.395, 0.395, ] %noloadloss=0.1778 sub=no
New "Transformer.05410_g2100oj3400" phases=1 buses=[n300469.2, g2100oj3400_n300469_sec.2, ] conns=[wye, wye, ] kVs=[7.621024, 0.24, ] kVAs=[50, 50, ] taps=[1, 1, ] wdg=1 %R=0.4385 wdg=2 %R=0.4385 %imag=0.5 %loadloss=0.877 %noloadloss=0.181 Xhl=2.025
New "Transformer.05410_g2100oj3600" phases=1 buses=[n300452.2, g2100oj3600_n300452_sec.2, ] conns=[wye, wye, ] kVs=[7.621024, 0.24, ] kVAs=[50, 50, ] taps=[1, 1, ] wdg=1 %R=0.4385 wdg=2 %R=0.4385 %imag=0.5 %loadloss=0.877 %noloadloss=0.181 Xhl=2.025
New "Transformer.05410_g2100ok3900" phases=1 buses=[n300495.1, g2100ok3900_n300495_sec.1, ] conns=[wye, wye, ] kVs=[19.91858, 0.24, ] kVAs=[50, 50, ] taps=[1, 1, ] wdg=1 %R=0.4385 wdg=2 %R=0.4385 %imag=0.5 %loadloss=0.877 %noloadloss=0.181 Xhl=2.025
New "Transformer.05410_g2100nn4200" phases=1 buses=[n300548.3, g2100nn4200_n300548_sec.3, ] conns=[wye, wye, ] kVs=[19.91858, 0.24, ] kVAs=[50, 50, ] taps=[1, 1, ] wdg=1 %R=0.567 wdg=2 %R=0.567 %imag=0.5 %loadloss=1.134 %noloadloss=0.181 Xhl=1.965
New "Transformer.05410_g2100nm7500" phases=1 buses=[n300513.1, g2100nm7500_n300513_sec.1, ] conns=[wye, wye, ] kVs=[19.91858, 0.24, ] kVAs=[100, 100, ] taps=[1, 1, ] wdg=1 %R=0.67875 wdg=2 %R=0.67875 %imag=0.5 %loadloss=1.3575 %noloadloss=0.131 Xhl=3.29
New "Transformer.05410_g2100nm6600" phases=1 buses=[n300513.1, g2100nm6600_n300513_sec.1, ] conns=[wye, wye, ] kVs=[19.91858, 0.24, ] kVAs=[100, 100, ] taps=[1, 1, ] wdg=1 %R=0.67875 wdg=2 %R=0.67875 %imag=0.5 %loadloss=1.3575 %noloadloss=0.131 Xhl=3.29
New "Transformer.05410_g2100nm4100" phases=1 buses=[n300509.1, g2100nm4100_n300509_sec.1, ] conns=[wye, wye, ] kVs=[19.91858, 0.24, ] kVAs=[100, 100, ] taps=[1, 1, ] wdg=1 %R=0.67875 wdg=2 %R=0.67875 %imag=0.5 %loadloss=1.3575 %noloadloss=0.131 Xhl=3.29
New "Transformer.05410_g2100nl6900" phases=1 buses=[n300504.1, g2100nl6900_n300504_sec.1, ] conns=[wye, wye, ] kVs=[19.91858, 0.24, ] kVAs=[100, 100, ] taps=[1, 1, ] wdg=1 %R=0.67875 wdg=2 %R=0.67875 %imag=0.5 %loadloss=1.3575 %noloadloss=0.131 Xhl=3.29
New "Transformer.05410_g2100om2900" phases=1 buses=[n300514.1, g2100om2900_n300514_sec.1, ] conns=[wye, wye, ] kVs=[19.91858, 0.24, ] kVAs=[100, 100, ] taps=[1, 1, ] wdg=1 %R=0.67875 wdg=2 %R=0.67875 %imag=0.5 %loadloss=1.3575 %noloadloss=0.131 Xhl=3.29
New "Transformer.05410_g2100om0900" phases=1 buses=[n300535.1, g2100om0900_n300535_sec.1, ] conns=[wye, wye, ] kVs=[19.91858, 0.24, ] kVAs=[100, 100, ] taps=[1, 1, ] wdg=1 %R=0.67875 wdg=2 %R=0.67875 %imag=0.5 %loadloss=1.3575 %noloadloss=0.131 Xhl=3.29
New "Transformer.05410_g2100on7300" phases=1 buses=[n300541.1, g2100on7300_n300541_sec.1, ] conns=[wye, wye, ] kVs=[19.91858, 0.24, ] kVAs=[100, 100, ] taps=[1, 1, ] wdg=1 %R=0.67875 wdg=2 %R=0.67875 %imag=0.5 %loadloss=1.3575 %noloadloss=0.131 Xhl=3.29
New "Transformer.05410_g2100on7400" phases=1 buses=[n300547.1, g2100on7400_n300547_sec.1, ] conns=[wye, wye, ] kVs=[19.91858, 0.24, ] kVAs=[100, 100, ] taps=[1, 1, ] wdg=1 %R=0.67875 wdg=2 %R=0.67875 %imag=0.5 %loadloss=1.3575 %noloadloss=0.131 Xhl=3.29
New "Transformer.05410_g2100pn0800" phases=1 buses=[n300563.1, g2100pn0800_n300563_sec.1, ] conns=[wye, wye, ] kVs=[19.91858, 0.24, ] kVAs=[100, 100, ] taps=[1, 1, ] wdg=1 %R=0.67875 wdg=2 %R=0.67875 %imag=0.5 %loadloss=1.3575 %noloadloss=0.131 Xhl=3.29
New "Transformer.05410_g2100on6900" phases=1 buses=[n300568.1, g2100on6900_n300568_sec.1, ] conns=[wye, wye, ] kVs=[19.91858, 0.24, ] kVAs=[100, 100, ] taps=[1, 1, ] wdg=1 %R=0.67875 wdg=2 %R=0.67875 %imag=0.5 %loadloss=1.3575 %noloadloss=0.131 Xhl=3.29
New "Transformer.05410_g2100oo0200" phases=1 buses=[n300573.1, g2100oo0200_n300573_sec.1, ] conns=[wye, wye, ] kVs=[19.91858, 0.24, ] kVAs=[100, 100, ] taps=[1, 1, ] wdg=1 %R=0.67875 wdg=2 %R=0.67875 %imag=0.5 %loadloss=1.3575 %noloadloss=0.131 Xhl=3.29
New "Transformer.05410_g2100oo7600" phases=1 buses=[n300586.1, g2100oo7600_n300586_sec.1, ] conns=[wye, wye, ] kVs=[19.91858, 0.24, ] kVAs=[100, 100, ] taps=[1, 1, ] wdg=1 %R=0.67875 wdg=2 %R=0.67875 %imag=0.5 %loadloss=1.3575 %noloadloss=0.131 Xhl=3.29
...
